Circuit: * C:\users\casa\My Documents\LTspiceXVII\LTSpice\E_Class\E.asc

.OP point found by inspection.
Heightened Def Con from 0.00810004 to 0.00810004

Date: Sun Jun 20 20:32:17 2021
Total elapsed time: 6.569 seconds.

tnom = 27
temp = 27
method = Gear
totiter = 389072
traniter = 389072
tranpoints = 121604
accept = 91325
rejected = 30280
matrix size = 21
fillins = 6
solver = Normal
Matrix Compiler1: 1.19 KB object code size  11.6/0.9/[0.4]
Matrix Compiler2: 1.57 KB object code size  1.1/1.4/[0.3]

